@<TRIPOS>MOLECULE
RES
41 44 1 0 1
SMALL
NO_CHARGES
@<TRIPOS>CRYSIN
   22.5370    12.3591    10.0647    90.0000    90.0000    90.0000 1 1
@<TRIPOS>ATOM
       1 C           -5.3303    -4.0381    -0.0966 C             1 RES     
       2 C           -6.0444    -3.1415    -0.9142 C             1 RES     
       3 C           -5.4042    -2.0195    -1.4641 C             1 RES     
       4 C           -4.0485    -1.8205    -1.1807 C             1 RES     
       5 C           -3.3516    -2.6992    -0.3808 C             1 RES     
       6 C           -3.9709    -3.8184     0.1766 C             1 RES     
       7 C           -1.9378    -2.2578    -0.2133 C             1 RES     
       8 C           -1.9362    -0.9916    -1.0369 C             1 RES     
       9 C           -0.8694    -0.1918    -1.2036 C             1 RES     
      10 C            0.4383    -0.4637    -0.5751 C             1 RES     
      11 C            1.4767     0.3503    -0.7797 C             1 RES     
      12 C            2.7828     0.0899    -0.1510 C             1 RES     
      13 C            3.8200     0.9056    -0.3672 C             1 RES     
      14 C            5.1497     0.7029     0.2417 C             1 RES     
      15 N            6.1923     1.5348     0.0029 N             1 RES     
      16 C            7.2190     1.0525     0.7210 C             1 RES     
      17 C            8.5104     1.5712     0.8063 C             1 RES     
      18 C            9.4335     0.9014     1.6306 C             1 RES     
      19 C            9.0485    -0.2574     2.3424 C             1 RES     
      20 C            7.7373    -0.7570     2.2356 C             1 RES     
      21 C            6.8470    -0.0715     1.4112 C             1 RES     
      22 C            5.5228    -0.3186     1.1213 C             1 RES     
      23 N           -3.2268    -0.7482    -1.6265 N             1 RES     
      24 H           -3.5677     0.1183    -2.0896 H             1 RES     
      25 H           -5.8322    -4.8989     0.3252 H             1 RES     
      26 H           -7.0926    -3.3167    -1.1186 H             1 RES     
      27 H           -5.9565    -1.3309    -2.0893 H             1 RES     
      28 H           -3.4171    -4.5006     0.8086 H             1 RES     
      29 H           -1.2399    -3.0123    -0.6352 H             1 RES     
      30 H           -1.7221    -2.0411     0.8550 H             1 RES     
      31 H           -0.9542     0.6932    -1.8169 H             1 RES     
      32 H            0.5621    -1.3319     0.0615 H             1 RES     
      33 H            1.3612     1.2203    -1.4174 H             1 RES     
      34 H            2.8884    -0.7746     0.4920 H             1 RES     
      35 H            3.6944     1.7643    -1.0172 H             1 RES     
      36 H            6.1975     2.3801    -0.6112 H             1 RES     
      37 H            8.7952     2.4602     0.2581 H             1 RES     
      38 H           10.4445     1.2773     1.7210 H             1 RES     
      39 H            9.7657    -0.7634     2.9751 H             1 RES     
      40 H            7.4316    -1.6431     2.7779 H             1 RES     
      41 H            4.9181    -1.1297     1.5054 H             1 RES     
@<TRIPOS>BOND
       1        1        2 ar
       2        1        6 ar
       3        1       25 1
       4        2        3 ar
       5        2       26 1
       6        3        4 ar
       7        3       27 1
       8        4        5 ar
       9        4       23 1
      10        5        6 ar
      11        5        7 1
      12        6       28 1
      13        7        8 1
      14        7       29 1
      15        7       30 1
      16        8        9 2
      17        8       23 1
      18        9       10 1
      19        9       31 1
      20       10       11 2
      21       10       32 1
      22       11       12 1
      23       11       33 1
      24       12       13 2
      25       12       34 1
      26       13       14 1
      27       13       35 1
      28       14       15 ar
      29       14       22 ar
      30       15       16 ar
      31       15       36 1
      32       16       17 ar
      33       16       21 ar
      34       17       18 ar
      35       17       37 1
      36       18       19 ar
      37       18       38 1
      38       19       20 ar
      39       19       39 1
      40       20       21 ar
      41       20       40 1
      42       21       22 ar
      43       22       41 1
      44       23       24 1
@<TRIPOS>SUBSTRUCTURE
       1 RES             1 RESIDUE    0 **** ROOT      0
