@<TRIPOS>MOLECULE
CY5-bonds.pdb
52 55 1 0 0
SMALL
NO_CHARGES


@<TRIPOS>ATOM
      1 C1          3.1400  -35.3380    6.9740 C.ar      1 CY5    0.0000
      2 C6          4.3690  -34.9040    6.4460 C.ar      1 CY5    0.0000
      3 C5          4.3490  -34.1620    5.2510 C.ar      1 CY5    0.0000
      4 C4          3.1570  -33.8600    4.6140 C.ar      1 CY5    0.0000
      5 C3          1.9270  -34.2940    5.1420 C.ar      1 CY5    0.0000
      6 H3          0.9800  -34.0380    4.6540 H         1 CY5    0.0000
      7 N1          3.3910  -33.1310    3.4920 N.pl3     1 CY5    0.0000
      8 C29         4.7690  -32.8910    3.3400 C.2       1 CY5    0.0000
      9 C7          5.5340  -33.5700    4.4990 C.3       1 CY5    0.0000
     10 C8          6.4720  -34.7030    4.0200 C.3       1 CY5    0.0000
     11 H5          6.8950  -35.2350    4.8740 H         1 CY5    0.0000
     12 H6          5.9230  -35.4250    3.4180 H         1 CY5    0.0000
     13 H7          7.2920  -34.3150    3.4210 H         1 CY5    0.0000
     14 C28         6.2880  -32.5720    5.4000 C.3       1 CY5    0.0000
     15 H31         5.6000  -31.8030    5.7690 H         1 CY5    0.0000
     16 H32         6.7040  -33.0850    6.2690 H         1 CY5    0.0000
     17 H33         7.1020  -32.0770    4.8770 H         1 CY5    0.0000
     18 C9          5.3750  -32.1410    2.2340 C.2       1 CY5    0.0000
     19 C10         6.6700  -31.8560    2.0140 C.2       1 CY5    0.0000
     20 H9          7.4250  -32.1740    2.7150 H         1 CY5    0.0000
     21 C32         7.1440  -31.1500    0.8350 C.2       1 CY5    0.0000
     22 H41         6.3790  -30.9310    0.0830 H         1 CY5    0.0000
     23 C33         8.4070  -30.7870    0.5590 C.2       1 CY5    0.0000
     24 C11         8.7850  -30.1430   -0.6900 C.2       1 CY5    0.0000
     25 C18        10.0170  -29.7240   -1.0780 C.2       1 CY5    0.0000
     26 N2         10.2350  -29.1340   -2.2920 N.pl3     1 CY5    0.0000
     27 C15        11.5550  -28.8230   -2.4910 C.ar      1 CY5    0.0000
     28 C14        12.1870  -28.2360   -3.5930 C.ar      1 CY5    0.0000
     29 C13        13.5790  -28.0300   -3.5410 C.ar      1 CY5    0.0000
     30 C12        14.3130  -28.4200   -2.4020 C.ar      1 CY5    0.0000
     31 C17        13.6700  -29.0050   -1.3070 C.ar      1 CY5    0.0000
     32 C16        12.2790  -29.2060   -1.3720 C.ar      1 CY5    0.0000
     33 C19        11.3580  -29.7970   -0.3230 C.3       1 CY5    0.0000
     34 C20        11.7810  -31.2330    0.0340 C.3       1 CY5    0.0000
     35 H15        11.6880  -31.8770   -0.8350 H         1 CY5    0.0000
     36 H16        11.1760  -31.6460    0.8430 H         1 CY5    0.0000
     37 H17        12.8260  -31.2540    0.3570 H         1 CY5    0.0000
     38 C30        11.3720  -28.8850    0.9070 C.3       1 CY5    0.0000
     39 H34        11.1930  -27.8530    0.6070 H         1 CY5    0.0000
     40 H35        10.5980  -29.1710    1.6170 H         1 CY5    0.0000
     41 H36        12.3410  -28.9150    1.4170 H         1 CY5    0.0000
     42 H14        14.2330  -29.3000   -0.4190 H         1 CY5    0.0000
     43 H11        15.3930  -28.2540   -2.3820 H         1 CY5    0.0000
     44 H12        14.0820  -27.5780   -4.3920 H         1 CY5    0.0000
     45 H13        11.6340  -27.9270   -4.4660 H         1 CY5    0.0000
     46 H10         7.9400  -29.9940   -1.3510 H         1 CY5    0.0000
     47 H42         9.1730  -30.9850    1.3040 H         1 CY5    0.0000
     48 H8          4.6650  -31.7730    1.4990 H         1 CY5    0.0000
     49 H4          5.3060  -35.1340    6.9430 H         1 CY5    0.0000
     50 H1          3.1330  -35.9020    7.9010 H         1 CY5    0.0000
     51 C2          1.9310  -35.0310    6.3370 C.ar      1 CY5    0.0000
     52 H2          0.9880  -35.3660    6.7650 H         1 CY5    0.0000
@<TRIPOS>BOND
     1    1    2 ar
     2    1   50 1
     3    1   51 ar
     4    2    3 ar
     5    2   49 1
     6    3    4 ar
     7    3    9 1
     8    4    5 ar
     9    4    7 1
    10    5    6 1
    11    5   51 ar
    12    7    8 2
    13    8    9 1
    14    8   18 2
    15    9   10 1
    16    9   14 1
    17   10   11 1
    18   10   12 1
    19   10   13 1
    20   14   15 1
    21   14   16 1
    22   14   17 1
    23   18   19 2
    24   18   48 1
    25   19   20 1
    26   19   21 2
    27   21   22 1
    28   21   23 2
    29   23   24 2
    30   23   47 1
    31   24   25 2
    32   24   46 1
    33   25   26 2
    34   25   33 1
    35   26   27 1
    36   27   28 ar
    37   27   32 ar
    38   28   29 ar
    39   28   45 1
    40   29   30 ar
    41   29   44 1
    42   30   31 ar
    43   30   43 1
    44   31   32 ar
    45   31   42 1
    46   32   33 1
    47   33   34 1
    48   33   38 1
    49   34   35 1
    50   34   36 1
    51   34   37 1
    52   38   39 1
    53   38   40 1
    54   38   41 1
    55   51   52 1
@<TRIPOS>SUBSTRUCTURE
     1 CY5     1 RESIDUE           4 A     CY5     0 ROOT
